%chk=Naph2.chk
# opt freq=noraman rhf/6-31g(d) geom=connectivity

Title Card Required

0 1
 C                 -5.40835785   -1.28169103    0.00026300
 C                 -4.03555685   -1.28169103    0.00026300
 C                 -3.31361885   -0.05657003    0.00026300
 C                 -4.03148885    1.16729597    0.00063300
 C                 -5.45290485    1.13792297    0.00078700
 C                 -6.12440985   -0.06005203    0.00049700
 H                 -1.34454585   -0.98153503    0.00002000
 H                 -5.96908885   -2.22803703    0.00018300
 H                 -3.47076785   -2.22601303    0.00003500
 C                 -1.89189185   -0.02702703    0.00000000
 C                 -3.30873885    2.39202197    0.00074800
 H                 -6.00014585    2.09237897    0.00086900
 H                 -7.22404685   -0.08641903    0.00059900
 C                 -1.93587785    2.39208997    0.00047500
 C                 -1.21986585    1.17019797    0.00001600
 H                 -3.87319485    3.33656297    0.00100800
 H                 -1.37518585    3.33842097    0.00029700
 H                 -0.12023785    1.19666297   -0.00016600

 1 2 1.5 6 1.5 8 1.0
 2 3 1.5 9 1.0
 3 4 1.5 10 1.5
 4 5 1.5 11 1.5
 5 6 1.5 12 1.0
 6 13 1.0
 7 10 1.0
 8
 9
 10 15 1.5
 11 14 1.5 16 1.0
 12
 13
 14 15 1.5 17 1.0
 15 18 1.0
 16
 17
 18

