# opt freq b3lyp/6-311g geom=connectivity freq=readisotopes

Methane 12CH4

0 1
 C                 -0.02702703    0.02702703    0.00000000
 H                  0.32962740   -0.98178298    0.00000000
 H                  0.32964581    0.53142522    0.87365150
 H                  0.32964581    0.53142522   -0.87365150
 H                 -1.09702703    0.02704021    0.00000000

 1 2 1.0 3 1.0 4 1.0 5 1.0
 2
 3
 4
 5

298.15 1.0
12
1
1
1
1
